hexane.pdb
 OpenBabel03251515363D

 20 19  0  0  0  0  0  0  0  0999 V2000
   -2.1410    0.7910    0.0000 C   0  0  0  0  0  0  0  0  0  0  0  0
   -1.7840    1.2960    0.8740 H   0  0  0  0  0  0  0  0  0  0  0  0
   -1.7840    1.2960   -0.8740 H   0  0  0  0  0  0  0  0  0  0  0  0
   -3.2110    0.7910    0.0000 H   0  0  0  0  0  0  0  0  0  0  0  0
   -1.6280   -0.6610    0.0000 C   0  0  0  0  0  0  0  0  0  0  0  0
   -1.9840   -1.1650    0.8740 H   0  0  0  0  0  0  0  0  0  0  0  0
   -1.9840   -1.1650   -0.8740 H   0  0  0  0  0  0  0  0  0  0  0  0
   -0.0880   -0.6610   -0.0000 C   0  0  0  0  0  0  0  0  0  0  0  0
    0.2690   -0.1580   -0.8750 H   0  0  0  0  0  0  0  0  0  0  0  0
    0.2690   -0.1540    0.8730 H   0  0  0  0  0  0  0  0  0  0  0  0
    0.4260   -2.1120    0.0030 C   0  0  0  0  0  0  0  0  0  0  0  0
    0.0680   -2.6190   -0.8700 H   0  0  0  0  0  0  0  0  0  0  0  0
    0.0690   -2.6150    0.8780 H   0  0  0  0  0  0  0  0  0  0  0  0
    1.9660   -2.1120    0.0020 C   0  0  0  0  0  0  0  0  0  0  0  0
    2.3230   -1.6060    0.8750 H   0  0  0  0  0  0  0  0  0  0  0  0
    2.3220   -1.6100   -0.8730 H   0  0  0  0  0  0  0  0  0  0  0  0
    2.4790   -3.5640    0.0050 C   0  0  0  0  0  0  0  0  0  0  0  0
    2.1220   -4.0710   -0.8670 H   0  0  0  0  0  0  0  0  0  0  0  0
    3.5490   -3.5640    0.0050 H   0  0  0  0  0  0  0  0  0  0  0  0
    2.1230   -4.0670    0.8800 H   0  0  0  0  0  0  0  0  0  0  0  0
  1  4  1  0  0  0  0
  1  5  1  0  0  0  0
  1  2  1  0  0  0  0
  3  1  1  0  0  0  0
  5  8  1  0  0  0  0
  5  6  1  0  0  0  0
  7  5  1  0  0  0  0
  8 11  1  0  0  0  0
  8 10  1  0  0  0  0
  9  8  1  0  0  0  0
 11 13  1  0  0  0  0
 12 11  1  0  0  0  0
 14 11  1  0  0  0  0
 14 17  1  0  0  0  0
 14 15  1  0  0  0  0
 16 14  1  0  0  0  0
 17 19  1  0  0  0  0
 17 20  1  0  0  0  0
 18 17  1  0  0  0  0
M  END
